data_3,4^2T9-CA_BULK_OPTGEOM_TZ
_audit_creation_date              2025-01-21
_audit_creation_method            'Materials Studio'
_symmetry_space_group_name_H-M    'PMC21'
_symmetry_Int_Tables_number       26
_symmetry_cell_setting            orthorhombic
loop_
_symmetry_equiv_pos_as_xyz
  x,y,z
  -x,-y,z+1/2
  x,-y,z+1/2
  -x,y,z
_cell_length_a                    4.2926
_cell_length_b                    3.7493
_cell_length_c                    4.9411
_cell_angle_alpha                 90.0000
_cell_angle_beta                  90.0000
_cell_angle_gamma                 90.0000
loop_
_atom_site_label
_atom_site_type_symbol
_atom_site_fract_x
_atom_site_fract_y
_atom_site_fract_z
_atom_site_U_iso_or_equiv
_atom_site_adp_type
_atom_site_occupancy
C001   C    -0.17934  -0.15774  -0.16107   0.00000  Uiso   1.00
C005   C     0.34380  -0.48752  -0.07219   0.00000  Uiso   1.00
C009   C    -0.31461   0.13430   0.03182   0.00000  Uiso   1.00
