data_3,4^2T7_CA_BULK_OPTGEOM_TZ
_audit_creation_date              2025-01-21
_audit_creation_method            'Materials Studio'
_symmetry_space_group_name_H-M    'PM-3'
_symmetry_Int_Tables_number       200
_symmetry_cell_setting            cubic
loop_
_symmetry_equiv_pos_as_xyz
  x,y,z
  -x,-y,z
  -x,y,-z
  x,-y,-z
  z,x,y
  z,-x,-y
  -z,-x,y
  -z,x,-y
  y,z,x
  -y,z,-x
  y,-z,-x
  -y,-z,x
  -x,-y,-z
  x,y,-z
  x,-y,z
  -x,y,z
  -z,-x,-y
  -z,x,y
  z,x,-y
  z,-x,y
  -y,-z,-x
  y,-z,x
  -y,z,x
  y,z,-x
_cell_length_a                    6.1883
_cell_length_b                    6.1883
_cell_length_c                    6.1883
_cell_angle_alpha                 90.0000
_cell_angle_beta                  90.0000
_cell_angle_gamma                 90.0000
loop_
_atom_site_label
_atom_site_type_symbol
_atom_site_fract_x
_atom_site_fract_y
_atom_site_fract_z
_atom_site_U_iso_or_equiv
_atom_site_adp_type
_atom_site_occupancy
C001   C    -0.50000  -0.29106   0.17142   0.00000  Uiso   1.00
C013   C    -0.50000  -0.14186  -0.34906   0.00000  Uiso   1.00
C025   C    -0.12061   0.00000  -0.50000   0.00000  Uiso   1.00
