data_3.4^9T2_BULK_OPTGEOM_TZ
_audit_creation_date              2025-01-21
_audit_creation_method            'Materials Studio'
_symmetry_space_group_name_H-M    'P-1'
_symmetry_Int_Tables_number       2
_symmetry_cell_setting            triclinic
loop_
_symmetry_equiv_pos_as_xyz
  x,y,z
  -x,-y,-z
_cell_length_a                    5.1087
_cell_length_b                    5.2090
_cell_length_c                    5.8171
_cell_angle_alpha                 87.9512
_cell_angle_beta                  83.9952
_cell_angle_gamma                 64.9502
loop_
_atom_site_label
_atom_site_type_symbol
_atom_site_fract_x
_atom_site_fract_y
_atom_site_fract_z
_atom_site_U_iso_or_equiv
_atom_site_adp_type
_atom_site_occupancy
C001   C     0.49448  -0.35902   0.27225   0.00000  Uiso   1.00
C003   C     0.28801  -0.12433   0.43145   0.00000  Uiso   1.00
C005   C    -0.37377  -0.17140   0.12484   0.00000  Uiso   1.00
C007   C     0.37804   0.16514   0.13889   0.00000  Uiso   1.00
C009   C     0.12949   0.15307   0.31944   0.00000  Uiso   1.00
C011   C    -0.12802  -0.17453   0.25073   0.00000  Uiso   1.00
C013   C     0.15983  -0.12061  -0.30839   0.00000  Uiso   1.00
C015   C     0.47599  -0.33990  -0.25881   0.00000  Uiso   1.00
C017   C     0.10523   0.34292  -0.48042   0.00000  Uiso   1.00
C019   C    -0.40657  -0.31107   0.49516   0.00000  Uiso   1.00
