data_3,4^2T1-CA_BULK_OPTGEOM_TZ
_audit_creation_date              2025-01-21
_audit_creation_method            'Materials Studio'
_symmetry_space_group_name_H-M    'P-4M2'
_symmetry_Int_Tables_number       115
_symmetry_cell_setting            tetragonal
loop_
_symmetry_equiv_pos_as_xyz
  x,y,z
  -x,-y,z
  y,-x,-z
  -y,x,-z
  x,-y,z
  -x,y,z
  y,x,-z
  -y,-x,-z
_cell_length_a                    2.4841
_cell_length_b                    2.4841
_cell_length_c                    4.9907
_cell_angle_alpha                 90.0000
_cell_angle_beta                  90.0000
_cell_angle_gamma                 90.0000
loop_
_atom_site_label
_atom_site_type_symbol
_atom_site_fract_x
_atom_site_fract_y
_atom_site_fract_z
_atom_site_U_iso_or_equiv
_atom_site_adp_type
_atom_site_occupancy
C001   C     0.00000   0.00000   0.00000   0.00000  Uiso   1.00
C002   C    -0.50000   0.00000   0.18644   0.00000  Uiso   1.00
C004   C    -0.50000  -0.50000   0.35398   0.00000  Uiso   1.00
